 606
 i  =      351, E =     -4006.7246429980
 Au        21.1509669181       20.4150835071       22.4641816241
 Au        18.9906788150       19.6865706074       20.3841808023
 Au        21.0521129561       17.8800093339       21.2183523375
 Au        18.9646430059       18.6720036720       23.0045069287
 Au        21.1880772986       19.1193742850       25.6985660018
 Au        23.1509791921       20.9467169056       24.3589445692
 Au        21.2627115217       22.9957467655       23.6891172693
 Au        23.2752599933       22.2973304719       21.8734699546
 Au        23.5414579561       17.9798673691       23.5339742998
 Au        26.3560710151       20.5722117435       22.5145557873
 Au        26.3960206425       19.4398608988       25.3198697785
 Au        26.5578701082       16.1768941728       24.4366966869
 Au        23.9120499049       15.1377068864       22.3883361760
 Au        25.8435433375       13.5864884086       20.4755688919
 Au        23.5671923141       12.7176191792       18.0904031181
 Au        23.8595061957       16.2329848256       18.8094102514
 Au        26.6195565382       18.1669525856       18.2196232702
 Au        21.6102153254       15.2733848106       16.8761707843
 Au        18.8628458496       13.0316124445       17.6272859284
 Au        16.6842929676       15.4092387504       16.7896417719
 Au        18.7589266588       17.4544649450       15.6677116135
 Au        18.7413027559       20.6025950251       17.5856668709
 Au        17.0234961111       18.6295911590       18.6358379915
 Au        16.2078366088       19.4613937763       14.7190288722
 Au        16.5603564297       22.4980185338       16.5167592922
 Au        16.7975740216       21.3336039406       19.4656218908
 Au        21.1070327621       14.0354272649       20.0346710206
 Au        16.5329591346       24.5482475545       20.5969525533
 Au        18.9745512453       25.8156231797       22.7551212696
 Au        26.1909024222       16.9860359489       21.0840709152
  S        24.8831659380       23.2498663047       20.3256313045
  S        20.2253313045       25.0201968492       24.6147531483
  S        22.4321714724       15.8806815721       20.6721090544
  S        27.6069792393       15.0987221117       20.8780595774
  S        15.4250218355       16.8711545212       18.1383835278
  S        17.8063523912       26.5289638645       20.8200392748
  S        15.0008831013       22.7718762924       20.3113970797
  S        14.8586253954       20.9763516836       15.8956926853
  S        17.6720705496       17.9764294127       13.6410700202
  S        20.1712304673       20.9863864050       15.6545254121
  S        17.8999394300       13.7529442448       15.6027402309
  S        22.9797422790       13.5738241747       15.9778504500
  S        25.4901174317       16.4150111790       17.1229478909
  S        27.9451229498       19.8102181129       19.2481284538
  S        28.1019733020       17.9317335740       24.6777554696
  S        24.9841340609       14.4354232949       24.3816251633
  S        24.2691566046       11.8534425864       20.1591075133
  S        19.6334767520       12.2285001557       19.6966438982
  S        18.1088188107       17.8648204130       25.1643955083
  S        22.3585338696       17.0923588042       25.3920663829
  C        16.5693058575       27.8147760619       21.3721164238
  H        16.1404179486       27.5001358308       22.3287667893
  H        17.1719534692       28.7186301180       21.5320164448
  C        15.5122523366       28.0270519022       20.3270250508
  C        14.2330440119       27.4713103774       20.4920907880
  H        14.0154943847       26.9040091382       21.3966715222
  C        13.2486565850       27.6522990227       19.5152129714
  H        12.2563801185       27.2299924140       19.6635545604
  C        13.5342624419       28.3798686810       18.3547972888
  H        12.7711578776       28.5173363910       17.5916424698
  C        14.8065945878       28.9355424516       18.1809734505
  H        15.0357601536       29.5003421998       17.2798727028
  C        15.7860445618       28.7638477639       19.1630097366
  H        16.7751722743       29.1996776632       19.0283637817
  C        13.9450406109       23.3547706173       18.8963238227
  H        13.8114394195       24.4358407875       19.0205017581
  H        14.5231422791       23.1837618529       17.9723890546
  C        12.6069881414       22.6596439325       18.8527108582
  C        12.4855384145       21.2675385786       18.9919616706
  H        13.3766001616       20.6697429248       19.1813428751
  C        11.2338210829       20.6511528503       18.9139540318
  H        11.1568119454       19.5711986524       19.0260625169
  C        10.0819687978       21.4143109773       18.6929708487
  H         9.1084831099       20.9317019277       18.6356362636
  C        10.1898210344       22.8015128497       18.5563592080
  H         9.3001788192       23.4054819392       18.3900488029
  C        11.4427283310       23.4177816630       18.6420323757
  H        11.5235311773       24.4996160305       18.5424463302
  C        13.8757018182       21.9229484553       14.6184682632
  H        13.5593951733       22.8349740847       15.1399995426
  H        14.5401393583       22.2009922412       13.7953162505
  C        12.6904648867       21.1246602148       14.1529893239
  C        11.5612870821       20.9841086660       14.9774194080
  H        11.5508676580       21.4516471094       15.9616868275
  C        10.4566202164       20.2449245123       14.5481359931
  H         9.5902635936       20.1452137969       15.1985298273
  C        10.4627675225       19.6392466652       13.2867274818
  H         9.5996395133       19.0691446834       12.9496375380
  C        11.5830395602       19.7728641301       12.4608498513
  H        11.5907494782       19.3112205976       11.4754521423
  C        12.6935479194       20.5047279969       12.8938728338
  H        13.5681333117       20.6007135812       12.2518244958
  C        16.6734521768       16.4854743374       13.1285086741
  H        17.3934713315       15.6592923066       13.0957599993
  H        15.9418250432       16.2670099213       13.9133502893
  C        16.0392551893       16.7196135310       11.7873534186
  C        14.7361312942       17.2302689784       11.6825458261
  H        14.1780737609       17.4675276095       12.5878994267
  C        14.1529205640       17.4384492001       10.4293739670
  H        13.1377586427       17.8248724254       10.3641647717
  C        14.8672065916       17.1487848337        9.2621850505
  H        14.4119952275       17.3110538054        8.2874780581
  C        16.1705066064       16.6494305463        9.3557147953
  H        16.7336931936       16.4229550602        8.4529300792
  C        16.7500907350       16.4374015969       10.6093030085
  H        17.7633014671       16.0452268229       10.6809617367
  C        16.6848963017       12.3703552483       15.2471928763
  H        17.3078437412       11.4730019971       15.1501401629
  H        16.0331932668       12.2527974988       16.1175414769
  C        15.9083588689       12.6371582458       13.9901427393
  C        16.4726121065       12.3702267673       12.7315692876
  H        17.4788790785       11.9575206427       12.6751780392
  C        15.7558250118       12.6257194774       11.5595279061
  H        16.2044816271       12.4125205222       10.5917360317
  C        14.4621659382       13.1530367446       11.6296079941
  H        13.9053483210       13.3578557117       10.7178255328
  C        13.8911024688       13.4196085329       12.8777757018
  H        12.8830446876       13.8255246209       12.9379733124
  C        14.6098618971       13.1664663914       14.0500085405
  H        14.1642120221       13.3799991441       15.0209936952
  C        21.7985341263       12.3590142051       15.1973178522
  H        21.0769032117       12.0466340167       15.9621729348
  H        21.2590102026       12.9395379916       14.4392070105
  C        22.5389391176       11.2050056265       14.5834122527
  C        22.9583731997       11.2610772458       13.2439468086
  H        22.7337930794       12.1474658354       12.6525783451
  C        23.6527182492       10.1939637257       12.6668545720
  H        23.9657573555       10.2510837276       11.6265157983
  C        23.9404998759        9.0533984137       13.4235245969
  H        24.4774486037        8.2204568257       12.9746466594
  C        23.5313540285        8.9877138813       14.7597646477
  H        23.7485522796        8.1023893440       15.3535647883
  C        22.8388890856       10.0570286606       15.3343560854
  H        22.5297137544       10.0069704676       16.3779326491
  C        19.2040048626       21.5741111883       14.1689196551
  H        18.4512133960       20.7936744383       13.9894102759
  H        18.6836811162       22.5010734160       14.4334285416
  C        20.1240702339       21.7449551773       12.9953445997
  C        20.6409093033       23.0096735442       12.6705510219
  H        20.3508982950       23.8709358398       13.2714927639
  C        21.5200014120       23.1659520119       11.5951479391
  H        21.9153423307       24.1509696226       11.3565884811
  C        21.8956851993       22.0572733926       10.8296076943
  H        22.5853233949       22.1776229033        9.9969024410
  C        21.3821503924       20.7935731995       11.1415793004
  H        21.6656527714       19.9284162323       10.5458723649
  C        20.5040368816       20.6380097232       12.2175270503
  H        20.1033365386       19.6542611490       12.4598752079
  C        24.7157542849       17.1538613028       15.5936034308
  H        23.7945683096       16.5778093766       15.4325548962
  H        24.4588787825       18.1975956986       15.8016470277
  C        25.6748794268       17.0123297319       14.4451471761
  C        25.7474779376       15.8093269880       13.7220765083
  H        25.0895189903       14.9849346948       13.9954728107
  C        26.6539027570       15.6663722306       12.6682235488
  H        26.6965088652       14.7305824410       12.1149327365
  C        27.5046499828       16.7230551978       12.3239948865
  H        28.2096367491       16.6118019930       11.5027942775
  C        27.4414503198       17.9232664757       13.0397738803
  H        28.0957406456       18.7526276405       12.7766832831
  C        26.5346449064       18.0660260505       14.0950674474
  H        26.4799952499       19.0015324104       14.6517114777
  C        29.1334430808       20.3425875942       17.9128815139
  H        28.5669990277       20.5901284404       17.0084199822
  H        29.5950072120       21.2618765083       18.2937787915
  C        30.1480761066       19.2584641238       17.6843391339
  C        31.2861423709       19.1610459549       18.5016314797
  H        31.4379248741       19.8953992897       19.2911628492
  C        32.2161735334       18.1347488977       18.3119157410
  H        33.0949122442       18.0753038564       18.9506242407
  C        32.0178190501       17.1860394934       17.3027006325
  H        32.7387387892       16.3846338208       17.1552472151
  C        30.8866368660       17.2730271024       16.4836947320
  H        30.7231861201       16.5386665114       15.6976373872
  C        29.9592903003       18.3013612089       16.6745823780
  H        29.0758261756       18.3614644177       16.0395953792
  C        28.9885704549       17.5176977087       26.2734783147
  H        28.2389213006       17.3221302026       27.0458882747
  H        29.5274952735       16.5868685745       26.0580420187
  C        29.9263738728       18.6227889947       26.6679643125
  C        29.5403745175       19.5800216429       27.6197460738
  H        28.5573865480       19.5059034217       28.0843293948
  C        30.4075544574       20.6180591270       27.9738145488
  H        30.0967725129       21.3506527809       28.7162149590
  C        31.6681838815       20.7186634510       27.3768243580
  H        32.3381304891       21.5324774438       27.6456440965
  C        32.0611558304       19.7699275882       26.4269292891
  H        33.0411805664       19.8412901903       25.9602220223
  C        31.1957100156       18.7301366030       26.0759835051
  H        31.5019585540       17.9932417325       25.3349399344
  C        25.9319728364       12.8691003413       24.0419994211
  H        25.1592869423       12.1084463743       23.8726089944
  H        26.5060786531       12.9912702884       23.1163166051
  C        26.8074699124       12.5204939316       25.2114955218
  C        28.1765966743       12.8310186548       25.1919652558
  H        28.5949462341       13.3216839944       24.3139008677
  C        28.9947238230       12.5149864641       26.2806403556
  H        30.0555504448       12.7546561847       26.2487194818
  C        28.4522214847       11.8889750963       27.4082011031
  H        29.0883335235       11.6414862408       28.2553851044
  C        27.0876346538       11.5814496124       27.4399620674
  H        26.6597207121       11.0947964401       28.3138331679
  C        26.2715822186       11.8962104452       26.3496293459
  H        25.2078545193       11.6633203625       26.3769174747
  C        25.3370134144       10.3796025529       19.7149993233
  H        24.6376150512        9.6396764107       19.3064494526
  H        26.0349698177       10.6834714958       18.9291216585
  C        27.3777029779       10.2316962678       21.1908718102
  H        27.8978020797       10.8850694259       20.4903025191
  C        26.0494634256        9.8585205786       20.9300236039
  C        25.3904090019        9.0161784949       21.8403939891
  H        24.3607039073        8.7205839276       21.6447749862
  C        26.0426265669        8.5584297090       22.9887695790
  H        25.5212660669        7.9043797011       23.6843684139
  C        27.3644642761        8.9396288477       23.2427318378
  H        27.8714840909        8.5907396788       24.1398072968
  C        28.0307577317        9.7734533114       22.3387947144
  H        29.0596959736       10.0710618334       22.5292050742
  C        20.6618167089       10.7139687567       19.3509449860
  H        21.3653522156       10.9544985627       18.5444852552
  H        21.2419804236       10.5623970723       20.2698740326
  C        19.7925757633        9.5303742490       19.0372577720
  C        19.5236600504        9.1668945998       17.7081589274
  H        19.9591577512        9.7489908916       16.8967920010
  C        18.7104957707        8.0672075801       17.4187876103
  H        18.5196496148        7.7930928667       16.3833942329
  C        18.1478030070        7.3182625129       18.4573683952
  H        17.5158085688        6.4615174356       18.2334126496
  C        18.4048956792        7.6737766580       19.7857816811
  H        17.9723834167        7.0940212357       20.5983784387
  C        19.2207126369        8.7715672839       20.0720104660
  H        19.4187822123        9.0472498795       21.1066723983
  C        17.0684558023       16.3390739279       24.9063025663
  H        16.2563471009       16.5859277253       24.2114944113
  H        17.7343383624       15.6275045335       24.4023969211
  C        16.5711225629       15.8015468897       26.2168905692
  C        17.3653174728       14.9280397198       26.9786248798
  H        18.3454082763       14.6296298123       26.6068803424
  C        16.9079747724       14.4340141193       28.2036741957
  H        17.5339199263       13.7542607400       28.7780741565
  C        15.6498457742       14.8083621906       28.6874352735
  H        15.2932595137       14.4232840464       29.6403983007
  C        14.8499607138       15.6765309337       27.9362420001
  H        13.8674587653       15.9664002768       28.3029658439
  C        15.3090209988       16.1683847709       26.7112353920
  H        14.6847038382       16.8396585678       26.1224778928
  C        21.0879302023       15.8654008312       24.7867777516
  H        20.1283934090       16.2760773784       25.1253221974
  H        21.0948870567       15.8670824996       23.6914822710
  C        21.3124852751       14.4845298520       25.3445015852
  C        21.4347011874       14.2669631090       26.7273855830
  H        21.4181948822       15.1191700259       27.4052891509
  C        21.5925707042       12.9750830724       27.2356557962
  H        21.6888805808       12.8247620201       28.3089215611
  C        21.6272469451       11.8771527593       26.3679540151
  H        21.7472028144       10.8707332681       26.7637448265
  C        21.5049633722       12.0826484430       24.9904163256
  H        21.5336541053       11.2369979773       24.3061857037
  C        21.3520506150       13.3770408571       24.4826080585
  H        21.2665675925       13.5336748992       23.4068469829
  C        14.0311254466       17.5647061818       17.1227615350
  H        13.7589354091       18.4996037045       17.6286284632
  H        14.4076061206       17.8202685775       16.1250393200
  C        12.8751368509       16.6065957426       17.0741689008
  C        12.5803140291       15.8918908052       15.9033432104
  H        13.1976184412       16.0416304835       15.0185207448
  C        11.5014523165       15.0023062473       15.8618265481
  H        11.2807810367       14.4606428297       14.9439203978
  C        10.7044124784       14.8106517414       16.9941053139
  H         9.8656825479       14.1186035912       16.9624512441
  C        10.9896468777       15.5178734923       18.1680439157
  H        10.3709522459       15.3771828839       19.0518373381
  C        12.0657247784       16.4072868776       18.2063480028
  H        12.2894091562       16.9547626896       19.1215485774
  S        24.8255098360       21.0069020296       26.1197839024
  C        24.0411613479       20.2118398030       27.6140574102
  H        23.3746122992       20.9830585676       28.0216818832
  H        23.4196126633       19.3781212849       27.2669843539
  C        25.0517100043       19.7585838582       28.6279753049
  C        25.5881433725       20.6527170640       29.5682761097
  H        25.2727907370       21.6949950944       29.5559674653
  C        26.5171667722       20.2162274001       30.5180754405
  H        26.9194128553       20.9212257962       31.2429649017
  C        26.9206085002       18.8766851497       30.5438439781
  H        27.6394197817       18.5355848917       31.2859953375
  C        26.3911970756       17.9769657204       29.6115375363
  H        26.6932966321       16.9314797233       29.6289712004
  C        25.4676294156       18.4165198613       28.6583057214
  H        25.0555778860       17.7151766314       27.9329061665
  C        29.0770356767       13.8541122425       18.8687753642
  C        28.4101023236       13.1128494142       17.8791985207
  H        27.5264110855       13.5371219136       17.4029204893
  C        28.8747019240       11.8492108123       17.5016421113
  H        28.3532641952       11.2922415678       16.7255632177
  C        30.0092384033       11.3052447075       18.1142410454
  H        30.3709086774       10.3217908989       17.8213751980
  C        30.6801178435       12.0355892493       19.1014447555
  H        31.5667572528       11.6212661900       19.5768640057
  C        30.2171100501       13.3010499063       19.4743667649
  H        30.7406038719       13.8691598044       20.2418529342
  C        28.5600870372       15.2031189096       19.2785246108
  H        27.9150884403       15.6439725602       18.5114237602
  H        29.3740983149       15.9087486998       19.4906486986
 Au        21.1509887904       21.6849541849       19.6358367608
 Au        18.9906658567       22.4134739281       21.7158209027
 Au        21.0521204457       24.2200249948       20.8816600413
 Au        18.9646657294       23.4280346886       19.0954982541
 Au        21.1881272696       22.9806624059       16.4014536932
 Au        23.1510131637       21.1533335967       17.7410881426
 Au        21.2627373763       19.1042784040       18.4109004757
 Au        23.2752511897       19.8026929521       20.2265692663
 Au        23.5414933502       24.1201685335       18.5660586150
 Au        26.3560706010       21.5278202474       19.5855192532
 Au        26.3960586943       22.6601557512       16.7801788258
 Au        26.5579016901       25.9231194541       17.6633684505
 Au        23.9120564259       26.9623286698       19.7116983349
 Au        25.8435513976       28.5135255045       21.6245080703
 Au        23.5671687342       29.3823821095       24.0096589668
 Au        23.8594895869       25.8670400717       23.2906407712
 Au        26.6195399336       23.9330798935       23.8804260202
 Au        21.6101617246       26.8266565311       25.2238402409
 Au        18.8628192546       29.0684338587       24.4726885073
 Au        16.6842283648       26.6908018276       25.3103063963
 Au        18.7588628542       24.6455777298       26.4322761826
 Au        18.7412574800       21.4974455925       24.5143334299
 Au        17.0234711766       23.4704538907       23.4641065185
 Au        16.2077740162       22.6386490875       27.3809274196
 Au        16.5603238066       19.6020446834       25.5832042369
 Au        16.7975541405       20.7664224922       22.6343578333
 Au        21.1070204329       28.0646100075       22.0653384662
 Au        16.5329708639       17.5517970979       21.5030002979
 Au        18.9745565549       16.2844096889       19.3448675955
 Au        26.1909222920       25.1139899613       21.0160061562
  S        24.8831577093       18.8501743698       21.7744275950
  S        20.2253709820       17.0798328387       17.4852520259
  S        22.4321762228       26.2193545047       21.4279274626
  S        27.6069981476       27.0013000556       21.2220183893
  S        15.4249722619       25.2288803946       23.9615570134
  S        17.8063341633       15.5710595358       21.2799338152
  S        15.0008860943       19.3281684408       21.7885359072
  S        14.8585643859       21.1236948987       26.2042606158
  S        17.6719863027       24.1236214206       28.4589020396
  S        20.1711818154       21.1136543825       26.4454779652
  S        17.8998443092       28.3471164121       26.4972103764
  S        22.9796865845       28.5262010537       26.1222146582
  S        25.4900850875       25.6850199788       24.9771022111
  S        27.9451258349       22.2898127989       22.8519504455
  S        28.1019960955       24.1682742560       17.4223206174
  S        24.9841782937       27.6645986538       17.7184253295
  S        24.2691504313       30.2465629396       21.9409553042
  S        19.6334876482       29.8715652631       22.4033505166
  S        18.1088678017       24.2352058682       16.9355898637
  S        22.3585919241       25.0076744511       16.7079443499
  C        16.5692779241       14.2852711971       20.7278342168
  H        16.1404115979       14.5999086980       19.7711717188
  H        17.1719101190       13.3814050719       20.5679659888
  C        15.5121971373       14.0730265136       21.7729033127
  C        14.2329980961       14.6287621737       21.6077863374
  H        14.0154816187       15.1960385868       20.7031816292
  C        13.2485761902       14.4477822671       22.5846323958
  H        12.2563100025       14.8701021914       22.4362615015
  C        13.5341570112       13.7202560090       23.7450826668
  H        12.7710251738       13.5827901114       24.5082101877
  C        14.8064803875       13.1645706453       23.9189485120
  H        15.0356272987       12.5998063763       24.8200767237
  C        15.7859588420       13.3362533948       22.9369409911
  H        16.7750850357       12.9004272977       23.0716177462
  C        13.9450310780       18.7452645980       23.2036047533
  H        13.8114312113       17.6641981486       23.0794207290
  H        14.5231134342       18.9162856469       24.1275515100
  C        12.6069803706       19.4403904441       23.2471999267
  C        12.4855333857       20.8325028841       23.1080014384
  H        13.3766070680       21.4303036069       22.9186842835
  C        11.2338242417       21.4489007209       23.1859931280
  H        11.1568290730       22.5288612375       23.0739344744
  C        10.0819597076       20.6857345939       23.4069024804
  H         9.1084777759       21.1683525936       23.4642219811
  C        10.1897887220       19.2985290023       23.5434707773
  H         9.3001333286       18.6945636478       23.7097386449
  C        11.4426988396       18.6822588622       23.4578092040
  H        11.5234864496       17.6004204424       23.5573692837
  C        13.8756475547       20.1770763992       27.4814906694
  H        13.5593347526       19.2650597859       26.9599448443
  H        14.5400980698       19.8990354633       28.3046324256
  C        12.6904506737       20.9754236761       27.9469617154
  C        11.5612313325       21.1159348588       27.1225699679
  H        11.5508131663       20.6484284516       26.1382852253
  C        10.4565932047       21.8551537158       27.5518490677
  H         9.5902204338       21.9548659770       26.9014762861
  C        10.4627614571       22.4608235210       28.8132678235
  H         9.5996373451       23.0309267307       29.1503665936
  C        11.5830332998       22.3271979543       29.6391336633
  H        11.5907575992       22.7888363860       30.6245353186
  C        12.6935249466       21.5953012480       29.2061023625
  H        13.5681258861       21.4993275408       29.8481329939
  C        16.6733586235       25.6145810454       28.9714443413
  H        17.3933689779       26.4407740272       29.0041491820
  H        15.9417065200       25.8330147827       28.1866181978
  C        16.0392123603       25.3804488443       30.3126248606
  C        14.7361137853       24.8697401015       30.4174835827
  H        14.1780458142       24.6324236566       29.5121534154
  C        14.1529555228       24.6615423357       31.6706778012
  H        13.1378073492       24.2750871730       31.7359285132
  C        14.8672582771       24.9512832999       32.8378360222
  H        14.4120829472       24.7890218554       33.8125609140
  C        16.1705341044       25.4506941091       32.7442582036
  H        16.7337374370       25.6772246372       33.6470180543
  C        16.7500693973       25.6627211191       31.4906482309
  H        17.7632559642       26.0549475524       31.4189499906
  C        16.6847909147       29.7297117828       26.8527114265
  H        17.3077539963       30.6270554507       26.9497493213
  H        16.0331259740       29.8472527614       25.9823320987
  C        15.9082281933       29.4628978418       28.1097435181
  C        16.4724334593       29.7299119353       29.3683217693
  H        17.4786932521       30.1426327485       29.4247403612
  C        15.7555966931       29.4744402507       30.5403362798
  H        16.2042174068       29.6876698908       31.5081373504
  C        14.4619594390       28.9470713639       30.4702407544
  H        13.9051030106       28.7422965215       31.3820095429
  C        13.8909467069       28.6804774090       29.2220554866
  H        12.8829022209       28.2745334675       29.1618337585
  C        14.6097325198       28.9335880532       28.0498316087
  H        14.1641238981       28.7200067578       27.0788380988
  C        21.7984883596       29.7410332273       26.9027159611
  H        21.0768766289       30.0533890984       26.1378320784
  H        21.2589555163       29.1604997807       27.6608101577
  C        22.5389441431       30.8950205090       27.5166046862
  C        22.9583090818       30.8389665755       28.8560908835
  H        22.7337281836       29.9525754419       29.4474543801
  C        23.6526646827       31.9060816634       29.4331658535
  H        23.9657112314       31.8489579867       30.4735018493
  C        23.9405175185       33.0466223509       28.6764832856
  H        24.4774450579       33.8795725252       29.1253699032
  C        23.5313316070       33.1123088230       27.3402563506
  H        23.7485782085       33.9976067802       26.7464395427
  C        22.8388682396       32.0429970026       26.7656523966
  H        22.5297157662       32.0930474162       25.7220704096
  C        19.2039522960       20.5259430332       27.9310789508
  H        18.4511641201       21.3063826944       28.1105758684
  H        18.6836224843       19.5989834068       27.6665687167
  C        20.1240173983       20.3550980003       29.1046549981
  C        20.6408425751       19.0903777713       29.4294522680
  H        20.3508291159       18.2291137208       28.8285135671
  C        21.5199377969       18.9341075409       30.5048528940
  H        21.9152672024       17.9490865473       30.7434136883
  C        21.8956283789       20.0427836684       31.2703940148
  H        22.5852683124       19.9224320792       32.1030977435
  C        21.3821037342       21.3064843732       30.9584079503
  H        21.6656104773       22.1716415017       31.5541135623
  C        20.5039810236       21.4620495394       29.8824649537
  H        20.1032848192       22.4457969894       29.6401068483
  C        24.7157132020       24.9461563574       26.5064489358
  H        23.7945376589       25.5222143128       26.6675175124
  H        24.4588198827       23.9024262221       26.2983921159
  C        25.6748415607       25.0876836387       27.6549224017
  C        25.7474550333       26.2906833582       28.3779878588
  H        25.0895075063       27.1150657105       28.1045500009
  C        26.6539327888       26.4336472443       29.4318057107
  H        26.6965190887       27.3694236893       29.9851224734
  C        27.5046329014       25.3769299322       29.7760609208
  H        28.2096364150       25.4881752148       30.5972512278
  C        27.4414018962       24.1767227283       29.0602699885
  H        28.0956787093       23.3473497045       29.3233537579
  C        26.5346138917       24.0339979757       28.0049554865
  H        26.4799362819       23.0984811607       27.4483412786
  C        29.1334169692       21.7574585412       24.1872293100
  H        28.5669592530       21.5099113900       25.0916797740
  H        29.5949805105       20.8381670723       23.8063361518
  C        30.1480618331       22.8415656169       24.4158044136
  C        31.2861344044       22.9389876881       23.5985265179
  H        31.4379190586       22.2046258298       22.8090024259
  C        32.2161698621       23.9652744128       23.7882792938
  H        33.0949221255       24.0247148596       23.1495888026
  C        32.0177967440       24.9139879110       24.7974892998
  H        32.7387211819       25.7153871830       24.9449581015
  C        30.8865912446       24.8269979655       25.6164619269
  H        30.7231213108       25.5613665761       26.4025074045
  C        29.9592334696       23.7986796086       25.4255409933
  H        29.0757561856       23.7385863803       26.0605102282
  C        28.9886002869       24.5823201231       15.8266120300
  H        28.2389756453       24.7778994252       15.0541813425
  H        29.5275419354       25.5131400383       16.0420587021
  C        29.9263973580       23.4772207478       15.4321177530
  C        29.5404034853       22.5199945911       14.4803196773
  H        28.5574287686       22.5941270044       14.0157096428
  C        30.4075587611       21.4819351654       14.1262408978
  H        30.0967870182       20.7493691419       13.3838053256
  C        31.6681790964       21.3813159058       14.7232393864
  H        32.3381200580       20.5674959453       14.4544227756
  C        32.0611572150       22.3300107818       15.6731763891
  H        33.0411784626       22.2586332214       16.1398882863
  C        31.1957214673       23.3698093479       16.0241166506
  H        31.5019790225       24.1066857790       16.7651759824
  C        25.9320128155       29.2309189983       18.0580610572
  H        25.1593206589       29.9915633201       18.2274602496
  H        26.5061266381       29.1087479746       18.9837399312
  C        26.8074964015       29.5795135489       16.8885567042
  C        28.1766286879       29.2690189201       16.9080956124
  H        28.5949782333       28.7783436472       17.7861548136
  C        28.9947435272       29.5850365002       15.8194078294
  H        30.0555727552       29.3453795782       15.8513291178
  C        28.4522386941       30.2110625129       14.6918566534
  H        29.0883464671       30.4585526128       13.8446702806
  C        27.0876447206       30.5185603071       14.6600927164
  H        26.6597282720       31.0052168211       13.7862247739
  C        26.2716014552       30.2038178376       15.7504366288
  H        25.2078691985       30.4366876070       15.7231514136
  C        25.3369868558       31.7204151549       22.3850863198
  H        24.6375705605       32.4603278854       22.7936294407
  H        26.0349395820       31.4165428508       23.1709627697
  C        27.3776863708       31.8683333716       20.9092273678
  H        27.8977804045       31.2149565688       21.6097968683
  C        26.0494416247       32.2414992722       21.1700642485
  C        25.3904004611       33.0838608156       20.2597069888
  H        24.3606940696       33.3794504337       20.4553259843
  C        26.0426284504       33.5416357550       19.1113494362
  H        25.5212635110       34.1956751184       18.4157446453
  C        27.3644569416       33.1604065728       18.8573721323
  H        27.8714883099       33.5093238370       17.9603136235
  C        28.0307591325       32.3266067531       19.7613248256
  H        29.0596897619       32.0289758489       19.5709036178
  C        20.6618415217       31.3860765907       22.7490865716
  H        21.3653693189       31.1455108778       23.5555441222
  H        21.2420173707       31.5376510215       21.8301666259
  C        19.7926255415       32.5696856040       23.0627906240
  C        19.5237062015       32.9331415028       24.3918922075
  H        19.9591965139       32.3510273645       25.2032501054
  C        18.7105810540       34.0328577693       24.6812683285
  H        18.5197312203       34.3069565548       25.7166640816
  C        18.1478911981       34.7818223624       23.6426981417
  H        17.5159294080       35.6385887592       23.8666661388
  C        18.4050041630       34.4263295072       22.3142840686
  H        17.9725056859       35.0061034666       21.5016923138
  C        19.2207813203       33.3285133947       22.0280410129
  H        19.4188562602       33.0528491881       20.9933762447
  C        17.0685089000       25.7609467204       17.1936442186
  H        16.2563756584       25.5141195799       17.8884223127
  H        17.7343679966       26.4725423018       17.6975528812
  C        16.5711458196       26.2985251185       15.8830925785
  C        17.3653846008       27.1719516689       15.1213236109
  H        18.3454457048       27.4703870296       15.4930934161
  C        16.9080451846       27.6659996077       13.8962734210
  H        17.5339813607       28.3457442300       13.3218756861
  C        15.6499104272       27.2916497892       13.4125155241
  H        15.2933217121       27.6767317057       12.4595596815
  C        14.8500137404       26.4234994954       14.1637046522
  H        13.8675394994       26.1335857546       13.7969474665
  C        15.3090826559       25.9316186216       15.3886931109
  H        14.6847325687       25.2604091461       15.9775135507
  C        21.0879753603       26.2346291653       17.3132257086
  H        20.1284375287       25.8239674003       16.9746617874
  H        21.0949188795       26.2329458334       18.4085222442
  C        21.3125174043       27.6154951350       16.7554973352
  C        21.4347426744       27.8330721094       15.3726096032
  H        21.4182188015       26.9808672753       14.6947045532
  C        21.5925991245       29.1249503247       14.8643294677
  H        21.6889042894       29.2752698379       13.7910617102
  C        21.6272962811       30.2228709950       15.7320370437
  H        21.7472521417       31.2292873733       15.3362427656
  C        21.5050011336       30.0173864308       17.1095759878
  H        21.5337041426       30.8630429553       17.7937977131
  C        21.3521126222       28.7229917757       17.6173813817
  H        21.2666177419       28.5663702779       18.6931448688
  C        14.0310575414       24.5353341062       24.9771538688
  H        13.7588847791       23.6004439734       24.4712684174
  H        14.4075401637       24.2797547618       25.9748710339
  C        12.8750829486       25.4934633264       25.0257421993
  C        12.5802293156       26.2081047959       26.1965982638
  H        13.1975189591       26.0583421829       27.0814271856
  C        11.5013556596       27.0976738921       26.2381121774
  H        11.2806778823       27.6393255338       27.1560228260
  C        10.7043531585       27.2893950857       25.1058192975
  H         9.8656246661       27.9814427917       25.1374794651
  C        10.9896118458       26.5821962059       23.9318738815
  H        10.3709452010       26.7229299178       23.0480681235
  C        12.0656842106       25.6927757717       23.8935536059
  H        12.2894031921       25.1453494695       22.9783320002
  S        24.8255606621       21.0931089873       15.9802565074
  C        24.0412160003       21.8881363502       14.4859778538
  H        23.3746949399       21.1169185271       14.0783131598
  H        23.4196541960       22.7218585761       14.8330327627
  C        25.0517557430       22.3414133888       13.4720717552
  C        25.5882106021       21.4472842761       12.5317737012
  H        25.2728850287       20.4049942346       12.5440762273
  C        26.5172419230       21.8837654328       11.5819700489
  H        26.9195128178       21.1787768353       10.8570805087
  C        26.9206561523       23.2233108412       11.5562068965
  H        27.6394898454       23.5644263250       10.8140827905
  C        26.3912533373       24.1230417012       12.4885150917
  H        26.6933560670       25.1685304863       12.4711018332
  C        25.4676784473       23.6834748599       13.4417276099
  H        25.0556065071       24.3847929686       14.1671434643
  C        29.0770422066       28.2458895110       23.2313407461
  C        28.4100952971       28.9871489607       24.2209135755
  H        27.5264100007       28.5628603932       24.6971832918
  C        28.8746957432       30.2507813455       24.5984882479
  H        28.3532495449       30.8077388402       25.3745718724
  C        30.0092438970       30.7947411907       23.9859050512
  H        30.3709051998       31.7781983952       24.2787728262
  C        30.6801144933       30.0644146146       22.9986798847
  H        31.5667660597       30.4787360251       22.5232807241
  C        30.2171114884       28.7989512956       22.6257591904
  H        30.7405965372       28.2308452064       21.8582661080
  C        28.5600898681       26.8968911176       22.8215655206
  H        27.9150812701       26.4560493828       23.5886583695
  H        29.3741019771       26.1912553222       22.6094543505
